Version 4
SHEET 1 880 680
WIRE 320 -480 272 -480
WIRE 464 -480 400 -480
WIRE -144 -448 -208 -448
WIRE 48 -448 -64 -448
WIRE -336 -400 -560 -400
WIRE -208 -400 -208 -448
WIRE -208 -400 -256 -400
WIRE 48 -384 48 -448
WIRE 160 -384 48 -384
WIRE 272 -384 272 -480
WIRE 272 -384 240 -384
WIRE 272 -368 272 -384
WIRE 320 -368 272 -368
WIRE -208 -352 -208 -400
WIRE -144 -352 -208 -352
WIRE 464 -352 464 -480
WIRE 464 -352 384 -352
WIRE 48 -336 48 -384
WIRE 48 -336 -80 -336
WIRE 320 -336 272 -336
WIRE -336 -320 -432 -320
WIRE -208 -320 -208 -352
WIRE -208 -320 -256 -320
WIRE -144 -320 -192 -320
WIRE 272 -272 272 -336
WIRE -432 -256 -432 -320
WIRE -432 -256 -560 -256
WIRE -192 -256 -192 -320
WIRE -560 -224 -560 -256
FLAG -192 -256 0
FLAG 272 -272 0
FLAG -112 -368 +V
FLAG 352 -320 +V
FLAG 352 -384 -V
FLAG -112 -304 -V
FLAG -336 -720 -V
FLAG -160 -720 +V
FLAG -336 -640 0
FLAG -160 -640 0
FLAG -560 -144 0
FLAG -560 -320 0
FLAG 464 -352 V_out
SYMBOL OpAmps\\OP07 -112 -400 R0
SYMATTR InstName U1
SYMBOL res -240 -416 R90
WINDOW 0 0 56 VBottom 2
WINDOW 3 32 56 VTop 2
SYMATTR InstName R1
SYMATTR Value 1k
SYMBOL res -240 -336 R90
WINDOW 0 0 56 VBottom 2
WINDOW 3 32 56 VTop 2
SYMATTR InstName R2
SYMATTR Value 1k
SYMBOL res -48 -464 R90
WINDOW 0 0 56 VBottom 2
WINDOW 3 32 56 VTop 2
SYMATTR InstName R3
SYMATTR Value 1k
SYMBOL OpAmps\\OP07 352 -288 M180
SYMATTR InstName U2
SYMBOL res 256 -400 R90
WINDOW 0 0 56 VBottom 2
WINDOW 3 32 56 VTop 2
SYMATTR InstName R4
SYMATTR Value 1k
SYMBOL res 416 -496 R90
WINDOW 0 0 56 VBottom 2
WINDOW 3 32 56 VTop 2
SYMATTR InstName R5
SYMATTR Value 10k
SYMBOL voltage -336 -736 R0
WINDOW 123 0 0 Left 0
WINDOW 39 0 0 Left 0
SYMATTR InstName V1
SYMATTR Value -10
SYMBOL voltage -160 -736 R0
WINDOW 123 0 0 Left 0
WINDOW 39 0 0 Left 0
SYMATTR InstName V2
SYMATTR Value 10
SYMBOL voltage -560 -416 R0
WINDOW 0 45 59 Left 2
WINDOW 3 -58 -162 VRight 2
WINDOW 123 0 0 Left 0
WINDOW 39 0 0 Left 0
SYMATTR InstName V3
SYMATTR Value 0
SYMBOL voltage -560 -240 R0
WINDOW 0 42 56 Left 2
WINDOW 3 -125 -181 VRight 2
WINDOW 123 0 0 Left 0
WINDOW 39 0 0 Left 0
SYMATTR InstName V4
SYMATTR Value SINE(0 5 100 0)
TEXT -64 -704 Left 2 !.tran 200ms
TEXT -56 -592 Left 2 !.options plotwinsize=0
