Version 4
SHEET 1 880 680
WIRE 272 96 -48 96
WIRE 272 112 272 96
WIRE -48 128 -48 96
WIRE -48 272 -48 208
WIRE 80 272 -48 272
WIRE 272 272 272 240
WIRE 272 272 80 272
WIRE 80 288 80 272
FLAG 80 288 0
SYMBOL Solar_cell_4_wire 272 224 R180
SYMATTR InstName X1
SYMBOL voltage -48 112 R0
WINDOW 123 0 0 Left 0
WINDOW 39 0 0 Left 0
SYMATTR InstName V1
SYMATTR Value 1
SYMBOL res 224 144 R90
WINDOW 0 0 56 VBottom 2
WINDOW 3 32 56 VTop 2
SYMATTR InstName 0.1
SYMATTR Value 0.1
SYMBOL res 224 176 R90
WINDOW 0 0 56 VBottom 2
WINDOW 3 32 56 VTop 2
SYMATTR InstName R2
SYMATTR Value 0.1
TEXT 416 224 Left 2 !.dc V1 0 0.7 0.01
