Version 4
SHEET 1 880 680
WIRE 208 80 32 80
WIRE 208 128 208 80
WIRE 32 160 32 80
WIRE 32 304 32 240
WIRE 128 304 32 304
WIRE 208 304 208 256
WIRE 208 304 128 304
WIRE 128 320 128 304
FLAG 128 320 0
SYMBOL voltage 32 144 R0
SYMATTR InstName V1
SYMBOL solarcell 208 144 R0
SYMATTR InstName X2
TEXT 0 24 Left 2 !.dc V1 0 0.7 0.01
