Version 4
SHEET 1 880 680
WIRE 272 -48 272 -112
WIRE 224 -32 160 -32
WIRE 32 0 32 -32
WIRE 272 64 272 48
WIRE 576 64 272 64
WIRE 624 64 624 0
WIRE 736 64 672 64
WIRE 160 80 160 -32
WIRE 224 80 160 80
WIRE 32 96 32 80
WIRE 736 112 736 64
WIRE 160 160 160 80
WIRE 160 160 0 160
WIRE 0 176 0 160
WIRE 272 176 272 160
WIRE 608 176 272 176
WIRE 656 176 656 112
WIRE 656 176 608 176
WIRE 0 192 0 176
WIRE 272 192 272 176
WIRE 608 256 608 176
WIRE 160 272 160 160
WIRE 224 272 160 272
WIRE 0 288 0 256
WIRE 272 304 272 288
WIRE 592 304 272 304
WIRE 752 304 688 304
WIRE 160 384 160 272
WIRE 224 384 160 384
WIRE 640 384 640 304
WIRE 272 432 272 400
FLAG 272 432 0
FLAG 272 -112 VDD
FLAG 736 112 0
FLAG 752 304 VDD
FLAG 32 96 0
FLAG 32 -32 VDD
FLAG 0 288 0
FLAG 624 0 VDD
FLAG 640 384 0
SYMBOL pmos 224 48 M180
SYMATTR InstName M1
SYMBOL nmos 224 304 R0
SYMATTR InstName M2
SYMBOL nmos 224 192 R0
SYMATTR InstName M3
SYMBOL pmos 224 160 M180
SYMATTR InstName M5
SYMBOL voltage 32 -16 R0
WINDOW 123 0 0 Left 0
WINDOW 39 0 0 Left 0
SYMATTR InstName V1
SYMATTR Value 5
SYMBOL voltage 0 160 R0
WINDOW 3 -231 -30 Left 2
WINDOW 123 0 0 Left 0
WINDOW 39 0 0 Left 0
SYMATTR Value SINE(2.5 1 1000 0 0 0)
SYMATTR InstName V2
SYMBOL pmos4 576 112 R270
SYMATTR InstName M7
SYMBOL nmos4 688 256 R90
SYMATTR InstName M4
TEXT -176 352 Left 2 !.tran 0 10ms 5ms
